  0
SECTION
  2
ENTITIES
999
DXF created from EnergyPlus
999
Program Version,EnergyPlus, Version 9.0.1-bb7ca4f0da, YMD=2019.12.18 10:17
999
Polygon Action,TRIANGULATE3DFACE
999
Color Scheme,Default
999
Text - True North
  0
TEXT
  8
1
  6
Continuous
 62
  3
 10
      -11.00000
 20
        1.87145
 30
        0.10000
 40
 .25
  1
True North
 41
 0.0
  7
MONOTXT
210
0.0
220
0.0
230
1.0
999
Text - Building Title
  0
TEXT
  8
1
  6
Continuous
 62
  3
 10
      -14.00000
 20
       -2.12855
 30
        0.10000
 40
 .4
  1
Building - Building
 41
 0.0
  7
MONOTXT
210
0.0
220
0.0
230
1.0
999
North Arrow Stem
  0
3DFACE
  8
1
 62
  3
 10
      -10.00000
 20
        1.87145
 30
        0.10000
 11
      -10.00000
 21
        1.87145
 31
        0.00000
 12
      -10.00000
 22
       -1.12855
 32
        0.00000
 13
      -10.00000
 23
       -1.12855
 33
        0.10000
999
North Arrow Head 1
  0
3DFACE
  8
1
 62
  3
 10
      -10.00000
 20
        1.87145
 30
        0.10000
 11
      -10.00000
 21
        1.87145
 31
        0.00000
 12
      -10.50000
 22
        1.00542
 32
        0.00000
 13
      -10.50000
 23
        1.00542
 33
        0.10000
999
North Arrow Head 2
  0
3DFACE
  8
1
 62
  3
 10
      -10.00000
 20
        1.87145
 30
        0.10000
 11
      -10.00000
 21
        1.87145
 31
        0.00000
 12
       -9.50000
 22
        1.00542
 32
        0.00000
 13
       -9.50000
 23
        1.00542
 33
        0.10000
999
North Arrow Side 1
  0
3DFACE
  8
1
 62
  3
 10
      -10.50000
 20
        3.37145
 30
        0.10000
 11
      -10.50000
 21
        3.37145
 31
        0.00000
 12
      -10.50000
 22
        2.37145
 32
        0.00000
 13
      -10.50000
 23
        2.37145
 33
        0.10000
999
North Arrow Side 2
  0
3DFACE
  8
1
 62
  3
 10
      -10.50000
 20
        3.37145
 30
        0.10000
 11
      -10.50000
 21
        3.37145
 31
        0.00000
 12
       -9.50000
 22
        2.37145
 32
        0.00000
 13
       -9.50000
 23
        2.37145
 33
        0.10000
999
North Arrow Side 3
  0
3DFACE
  8
1
 62
  3
 10
       -9.50000
 20
        3.37145
 30
        0.10000
 11
       -9.50000
 21
        3.37145
 31
        0.00000
 12
       -9.50000
 22
        2.37145
 32
        0.00000
 13
       -9.50000
 23
        2.37145
 33
        0.10000
999
Zone Names
999
Zone=1:BLOCK1_ZONE3
999
Zone=2:BLOCK1_ZONE1
999
Zone=3:BLOCK1_ZONE2
999
BLOCK1:ZONE3:BLOCK1:ZONE3_PARTITION_2_0_0
  0
3DFACE
  8
BLOCK1_ZONE3
 62
 43
 10
       13.51577
 20
       -1.12855
 30
        3.50000
 11
       13.51577
 21
       -1.12855
 31
        0.00000
 12
       13.51577
 22
        6.87145
 32
        0.00000
 13
       13.51577
 23
        6.87145
 33
        3.50000
999
BLOCK1:ZONE3:BLOCK1:ZONE3_PARTITION_2_0_0_0_0_0_DOOR
  0
3DFACE
  8
BLOCK1_ZONE3
 62
 45
 10
        0.00000
 20
        0.02000
 30
        1.99000
 11
        0.00000
 21
        0.02000
 31
        0.05000
 12
        0.00000
 22
        0.82000
 32
        0.05000
 13
        0.00000
 23
        0.82000
 33
        1.99000
999
BLOCK1:ZONE3:BLOCK1:ZONE3_PARTITION_3_0_0
  0
3DFACE
  8
BLOCK1_ZONE3
 62
 43
 10
       13.51577
 20
        6.87145
 30
        3.50000
 11
       13.51577
 21
        6.87145
 31
        0.00000
 12
       11.51577
 22
        6.87145
 32
        0.00000
 13
       11.51577
 23
        6.87145
 33
        3.50000
999
BLOCK1:ZONE3:BLOCK1:ZONE3_PARTITION_4_0_0
  0
3DFACE
  8
BLOCK1_ZONE3
 62
 43
 10
       11.51577
 20
        6.87145
 30
        3.50000
 11
       11.51577
 21
        6.87145
 31
        0.00000
 12
       11.51577
 22
       -1.12855
 32
        0.00000
 13
       11.51577
 23
       -1.12855
 33
        3.50000
999
BLOCK1:ZONE3:BLOCK1:ZONE3_PARTITION_4_0_0_0_0_0_DOOR
  0
3DFACE
  8
BLOCK1_ZONE3
 62
 45
 10
        0.00000
 20
        0.81000
 30
        1.89000
 11
        0.00000
 21
        0.81000
 31
        0.05000
 12
        0.00000
 22
        0.02000
 32
        0.05000
 13
        0.00000
 23
        0.02000
 33
        1.89000
999
BLOCK1:ZONE3:BLOCK1:ZONE3_PARTITION_5_0_0
  0
3DFACE
  8
BLOCK1_ZONE3
 62
 43
 10
       11.51577
 20
       -1.12855
 30
        3.50000
 11
       11.51577
 21
       -1.12855
 31
        0.00000
 12
       13.51577
 22
       -1.12855
 32
        0.00000
 13
       13.51577
 23
       -1.12855
 33
        3.50000
999
BLOCK1:ZONE3:BLOCK1:ZONE3_FLOOR_0_0_0
  0
3DFACE
  8
BLOCK1_ZONE3
 62
  8
 10
       13.51577
 20
        6.87145
 30
        0.00000
 11
       13.51577
 21
       -1.12855
 31
        0.00000
 12
       11.51577
 22
       -1.12855
 32
        0.00000
 13
       11.51577
 23
        6.87145
 33
        0.00000
999
BLOCK1:ZONE3:BLOCK1:ZONE3_ROOF_1_0_0
  0
3DFACE
  8
BLOCK1_ZONE3
 62
 15
 10
       11.51577
 20
        6.87145
 30
        3.50000
 11
       11.51577
 21
       -1.12855
 31
        3.50000
 12
       13.51577
 22
       -1.12855
 32
        3.50000
 13
       13.51577
 23
        6.87145
 33
        3.50000
999
BLOCK1:ZONE1:BLOCK1:ZONE1_PARTITION_4_0_10001
  0
3DFACE
  8
BLOCK1_ZONE1
 62
 43
 10
       13.51577
 20
        6.87145
 30
        3.50000
 11
       13.51577
 21
        6.87145
 31
        0.00000
 12
       13.51577
 22
       -1.12855
 32
        0.00000
 13
       13.51577
 23
       -1.12855
 33
        3.50000
999
BLOCK1:ZONE1:BLOCK1:ZONE1_PARTITION_4_0_0_0_0_0_DOOR_10003
  0
3DFACE
  8
BLOCK1_ZONE1
 62
 45
 10
        0.00000
 20
        0.82000
 30
        1.99000
 11
        0.00000
 21
        0.82000
 31
        0.05000
 12
        0.00000
 22
        0.02000
 32
        0.05000
 13
        0.00000
 23
        0.02000
 33
        1.99000
999
BLOCK1:ZONE1:BLOCK1:ZONE1_WALL_2_0_0
  0
3DFACE
  8
BLOCK1_ZONE1
 62
 43
 10
       21.51577
 20
       -1.12855
 30
        3.50000
 11
       21.51577
 21
       -1.12855
 31
        0.00000
 12
       21.51577
 22
        6.87145
 32
        0.00000
 13
       21.51577
 23
        6.87145
 33
        3.50000
999
BLOCK1:ZONE1:BLOCK1:ZONE1_WALL_2_0_0_0_0_0_WIN
  0
3DFACE
  8
BLOCK1_ZONE1
 62
143
 10
        0.00000
 20
        0.12000
 30
        1.31000
 11
        0.00000
 21
        0.12000
 31
        0.03000
 12
        0.00000
 22
        4.67000
 32
        0.03000
 13
        0.00000
 23
        4.67000
 33
        1.31000
999
BLOCK1:ZONE1:BLOCK1:ZONE1_WALL_3_0_0
  0
3DFACE
  8
BLOCK1_ZONE1
 62
 43
 10
       21.51577
 20
        6.87145
 30
        3.50000
 11
       21.51577
 21
        6.87145
 31
        0.00000
 12
       13.51577
 22
        6.87145
 32
        0.00000
 13
       13.51577
 23
        6.87145
 33
        3.50000
999
BLOCK1:ZONE1:BLOCK1:ZONE1_WALL_3_0_0_0_0_0_WIN
  0
3DFACE
  8
BLOCK1_ZONE1
 62
143
 10
        4.84000
 20
        0.00000
 30
        1.31000
 11
        4.84000
 21
        0.00000
 31
        0.03000
 12
        0.13000
 22
        0.00000
 32
        0.03000
 13
        0.13000
 23
        0.00000
 33
        1.31000
999
BLOCK1:ZONE1:BLOCK1:ZONE1_WALL_5_0_0
  0
3DFACE
  8
BLOCK1_ZONE1
 62
 43
 10
       13.51577
 20
       -1.12855
 30
        3.50000
 11
       13.51577
 21
       -1.12855
 31
        0.00000
 12
       21.51577
 22
       -1.12855
 32
        0.00000
 13
       21.51577
 23
       -1.12855
 33
        3.50000
999
BLOCK1:ZONE1:BLOCK1:ZONE1_WALL_5_0_0_0_0_0_WIN
  0
3DFACE
  8
BLOCK1_ZONE1
 62
143
 10
        0.13000
 20
        0.00000
 30
        1.31000
 11
        0.13000
 21
        0.00000
 31
        0.03000
 12
        4.84000
 22
        0.00000
 32
        0.03000
 13
        4.84000
 23
        0.00000
 33
        1.31000
999
BLOCK1:ZONE1:BLOCK1:ZONE1_GROUNDFLOOR_0_0_0
  0
3DFACE
  8
BLOCK1_ZONE1
 62
  8
 10
       21.51577
 20
        6.87145
 30
        0.00000
 11
       21.51577
 21
       -1.12855
 31
        0.00000
 12
       13.51577
 22
       -1.12855
 32
        0.00000
 13
       13.51577
 23
        6.87145
 33
        0.00000
999
BLOCK1:ZONE1:BLOCK1:ZONE1_ROOF_1_0_0
  0
3DFACE
  8
BLOCK1_ZONE1
 62
 15
 10
       13.51577
 20
        6.87145
 30
        3.50000
 11
       13.51577
 21
       -1.12855
 31
        3.50000
 12
       21.51577
 22
       -1.12855
 32
        3.50000
 13
       21.51577
 23
        6.87145
 33
        3.50000
999
BLOCK1:ZONE2:BLOCK1:ZONE2_PARTITION_2_0_10004
  0
3DFACE
  8
BLOCK1_ZONE2
 62
 43
 10
       11.51577
 20
       -1.12855
 30
        3.50000
 11
       11.51577
 21
       -1.12855
 31
        0.00000
 12
       11.51577
 22
        6.87145
 32
        0.00000
 13
       11.51577
 23
        6.87145
 33
        3.50000
999
BLOCK1:ZONE2:BLOCK1:ZONE2_PARTITION_2_0_0_0_0_0_DOOR_10006
  0
3DFACE
  8
BLOCK1_ZONE2
 62
 45
 10
        0.00000
 20
        0.02000
 30
        1.89000
 11
        0.00000
 21
        0.02000
 31
        0.05000
 12
        0.00000
 22
        0.81000
 32
        0.05000
 13
        0.00000
 23
        0.81000
 33
        1.89000
999
BLOCK1:ZONE2:BLOCK1:ZONE2_WALL_3_0_0
  0
3DFACE
  8
BLOCK1_ZONE2
 62
 43
 10
       11.51577
 20
        6.87145
 30
        3.50000
 11
       11.51577
 21
        6.87145
 31
        0.00000
 12
        3.51577
 22
        6.87145
 32
        0.00000
 13
        3.51577
 23
        6.87145
 33
        3.50000
999
BLOCK1:ZONE2:BLOCK1:ZONE2_WALL_3_0_0_0_0_0_WIN
  0
3DFACE
  8
BLOCK1_ZONE2
 62
143
 10
        4.84000
 20
        0.00000
 30
        1.31000
 11
        4.84000
 21
        0.00000
 31
        0.03000
 12
        0.13000
 22
        0.00000
 32
        0.03000
 13
        0.13000
 23
        0.00000
 33
        1.31000
999
BLOCK1:ZONE2:BLOCK1:ZONE2_WALL_4_0_0
  0
3DFACE
  8
BLOCK1_ZONE2
 62
 43
 10
        3.51577
 20
        6.87145
 30
        3.50000
 11
        3.51577
 21
        6.87145
 31
        0.00000
 12
        3.51577
 22
       -1.12855
 32
        0.00000
 13
        3.51577
 23
       -1.12855
 33
        3.50000
999
BLOCK1:ZONE2:BLOCK1:ZONE2_WALL_4_0_0_0_0_0_WIN
  0
3DFACE
  8
BLOCK1_ZONE2
 62
143
 10
        0.00000
 20
        4.67000
 30
        1.31000
 11
        0.00000
 21
        4.67000
 31
        0.03000
 12
        0.00000
 22
        0.12000
 32
        0.03000
 13
        0.00000
 23
        0.12000
 33
        1.31000
999
BLOCK1:ZONE2:BLOCK1:ZONE2_WALL_5_0_0
  0
3DFACE
  8
BLOCK1_ZONE2
 62
 43
 10
        3.51577
 20
       -1.12855
 30
        3.50000
 11
        3.51577
 21
       -1.12855
 31
        0.00000
 12
       11.51577
 22
       -1.12855
 32
        0.00000
 13
       11.51577
 23
       -1.12855
 33
        3.50000
999
BLOCK1:ZONE2:BLOCK1:ZONE2_WALL_5_0_0_0_0_0_WIN
  0
3DFACE
  8
BLOCK1_ZONE2
 62
143
 10
        0.13000
 20
        0.00000
 30
        1.31000
 11
        0.13000
 21
        0.00000
 31
        0.03000
 12
        4.84000
 22
        0.00000
 32
        0.03000
 13
        4.84000
 23
        0.00000
 33
        1.31000
999
BLOCK1:ZONE2:BLOCK1:ZONE2_GROUNDFLOOR_0_0_0
  0
3DFACE
  8
BLOCK1_ZONE2
 62
  8
 10
       11.51577
 20
        6.87145
 30
        0.00000
 11
       11.51577
 21
       -1.12855
 31
        0.00000
 12
        3.51577
 22
       -1.12855
 32
        0.00000
 13
        3.51577
 23
        6.87145
 33
        0.00000
999
BLOCK1:ZONE2:BLOCK1:ZONE2_ROOF_1_0_0
  0
3DFACE
  8
BLOCK1_ZONE2
 62
 15
 10
        3.51577
 20
        6.87145
 30
        3.50000
 11
        3.51577
 21
       -1.12855
 31
        3.50000
 12
       11.51577
 22
       -1.12855
 32
        3.50000
 13
       11.51577
 23
        6.87145
 33
        3.50000
999
BLOCK1:ZONE3:DayRefPt:1
  0
CIRCLE
  8
BLOCK1_ZONE3
 62
 10
 10
       12.51600
 20
        2.87100
 30
        0.90000
 40
        0.20000
999
BLOCK1:ZONE1:DayRefPt:1
  0
CIRCLE
  8
BLOCK1_ZONE1
 62
 10
 10
       17.51600
 20
        2.87100
 30
        0.80000
 40
        0.20000
999
BLOCK1:ZONE2:DayRefPt:1
  0
CIRCLE
  8
BLOCK1_ZONE2
 62
 10
 10
        7.51600
 20
        2.87100
 30
        0.80000
 40
        0.20000
999
BLOCK1:ZONE3:DEDayRefPt:1
  0
CIRCLE
  8
BLOCK1_ZONE3
 62
 10
 10
       12.51600
 20
        2.87100
 30
        0.90000
 40
        0.20000
999
BLOCK1:ZONE1:DEDayRefPt:1
  0
CIRCLE
  8
BLOCK1_ZONE1
 62
 10
 10
       17.51600
 20
        2.87100
 30
        0.80000
 40
        0.20000
999
BLOCK1:ZONE2:DEDayRefPt:1
  0
CIRCLE
  8
BLOCK1_ZONE2
 62
 10
 10
        7.51600
 20
        2.87100
 30
        0.80000
 40
        0.20000
  0
ENDSEC
  0
EOF
